Circuit: *** SPICE deck for cell inv_lay_sim{lay} from library cmos_lay

Error on line 9 : m:inv@0:nmos@0 out«:out» in«:in» gnd«:gnd» gnd«:gnd» n l=0.6u w=3u as=15.75p ad=9.225p ps=25.5u pd=13.2u
	 Unable to find definition of model "w"
	
	* Error:  No unlabeled parameter permitted for MOSFET's
Error on line 10 : m:inv@0:pmos@1 out«:out» in«:in» vdd«:vdd» vdd«:vdd» p l=0.6u w=6u as=20.7p ad=9.225p ps=30.9u pd=13.2u
	 Unable to find definition of model "w"
	
	* Error:  No unlabeled parameter permitted for MOSFET's

Date: Tue Oct 06 15:14:16 2020
Total elapsed time: 3.222 seconds.

tnom = 27
temp = 27
method = trap
totiter = 10027
traniter = 0
tranpoints = 0
accept = 0
rejected = 0
matrix size = 5
fillins = 0
solver = Normal
Matrix Compiler1: 132 bytes object code size  0.0/0.0/[0.0]
Matrix Compiler2: 335 bytes object code size  0.1/0.1/[0.0]

